@<TRIPOS>MOLECULE
*****
 19 18 0 0 0
SMALL
GASTEIGER

@<TRIPOS>ATOM
      1 C           3.8298   -2.2135   -1.6487 C.3     1  UNL1        0.1079
      2 N           4.2786   -0.9492   -1.0881 N.3     1  UNL1       -0.2096
      3 C           3.2106    0.0302   -1.2918 C.3     1  UNL1        0.1406
      4 C           3.8384    1.4067   -1.3604 C.2     1  UNL1        0.1676
      5 O           3.6717    2.2743   -0.5027 O.2     1  UNL1       -0.2946
      6 C           4.6785    1.6828   -2.5736 C.3     1  UNL1        0.0738
      7 C           2.2293   -0.0098   -0.1375 C.3     1  UNL1        0.0825
      8 S           0.6352   -0.6298   -0.7417 S.3     1  UNL1       -0.1344
      9 C          -0.3231   -0.2605    0.7565 C.3     1  UNL1        0.1051
     10 C          -1.8190   -0.4973    0.6197 C.3     1  UNL1        0.2230
     11 O          -2.1269   -1.8568    0.3150 O.3     1  UNL1       -0.4474
     12 C          -2.1165   -2.6345    1.4275 C.2     1  UNL1        0.3176
     13 O          -1.8544   -2.2541    2.5588 O.2     1  UNL1       -0.2501
     14 C          -2.4678   -4.0393    1.0665 C.3     1  UNL1        0.1212
     15 C          -2.4788    0.4155   -0.3928 C.3     1  UNL1        0.2526
     16 O          -2.2717    1.7837   -0.0436 O.3     1  UNL1       -0.4445
     17 C          -3.3728    2.3067    0.5546 C.2     1  UNL1        0.3177
     18 O          -4.4064    1.7023    0.7965 O.2     1  UNL1       -0.2501
     19 C          -3.1347    3.7427    0.8849 C.3     1  UNL1        0.1212
@<TRIPOS>BOND
     1     1     2    1
     2     2     3    1
     3     3     4    1
     4     4     5    2
     5     4     6    1
     6     3     7    1
     7     7     8    1
     8     8     9    1
     9    10     9    1
    10    10    11    1
    11    11    12    1
    12    12    13    2
    13    12    14    1
    14    10    15    1
    15    15    16    1
    16    16    17    1
    17    17    18    2
    18    17    19    1
