@<TRIPOS>MOLECULE
*****
 9 8 0 0 0
SMALL
GASTEIGER

@<TRIPOS>ATOM
      1 O           0.0527   -1.3002   -1.3679 O.3     1  UNL1       -0.2227
      2 C          -0.4631   -0.9239   -0.1030 C.3     1  UNL1        0.1592
      3 C          -1.3842    0.2729   -0.2185 C.3     1  UNL1        0.0309
      4 C          -2.4321    0.0730   -1.2880 C.3     1  UNL1        0.0026
      5 C          -2.0713    0.5562    1.0966 C.3     1  UNL1        0.0026
      6 C           0.6727   -0.7381    0.8775 C.3     1  UNL1        0.0973
      7 C           1.5611    0.4109    0.4986 C.2     1  UNL1        0.1536
      8 O           1.3975    1.5329    0.9725 O.2     1  UNL1       -0.2960
      9 C           2.6668    0.1162   -0.4680 C.3     1  UNL1        0.0723
@<TRIPOS>BOND
     1     2     1    1
     2     2     3    1
     3     3     4    1
     4     3     5    1
     5     2     6    1
     6     6     7    1
     7     7     8    2
     8     7     9    1
