@<TRIPOS>MOLECULE
*****
 11 10 0 0 0
SMALL
GASTEIGER

@<TRIPOS>ATOM
      1 N           4.1512   -0.1558    0.9201 N.3     1  UNL1       -0.1314
      2 C           3.7305    1.0408    0.2133 C.3     1  UNL1        0.1093
      3 C           2.5239    0.7323   -0.6413 C.3     1  UNL1        0.0206
      4 C           1.2684    0.6620    0.1954 C.3     1  UNL1        0.0034
      5 C           0.1030    0.2636   -0.6780 C.3     1  UNL1        0.0249
      6 C          -1.1653    0.1247    0.1351 C.3     1  UNL1        0.1299
      7 C          -2.3968    0.1590   -0.7427 C.2     1  UNL1        0.1667
      8 O          -2.4318   -0.3169   -1.8772 O.2     1  UNL1       -0.2946
      9 C          -3.6090    0.7973   -0.1328 C.3     1  UNL1        0.0738
     10 N          -1.2002   -1.0448    1.0081 N.3     1  UNL1       -0.2105
     11 C          -0.9737   -2.2621    0.2406 C.3     1  UNL1        0.1079
@<TRIPOS>BOND
     1     1     2    1
     2     2     3    1
     3     3     4    1
     4     4     5    1
     5     6     5    1
     6     6     7    1
     7     7     8    2
     8     7     9    1
     9     6    10    1
    10    10    11    1
