@<TRIPOS>MOLECULE
*****
 22 23 0 0 0
SMALL
GASTEIGER

@<TRIPOS>ATOM
      1 O          -0.1705   -2.4350   -2.0617 O.3     1  UNL1       -0.2155
      2 C           0.2410   -1.7647   -0.8788 C.3     1  UNL1        0.2337
      3 C          -0.8333   -1.7658    0.1826 C.3     1  UNL1        0.2161
      4 O          -1.6276   -2.9291    0.1982 O.3     1  UNL1       -0.2175
      5 C          -1.6186   -0.5199   -0.1206 C.3     1  UNL1        0.1803
      6 O          -0.6137    0.4441   -0.4732 O.3     1  UNL1       -0.3306
      7 C           0.3840   -0.2842   -1.2002 C.3     1  UNL1        0.2408
      8 N           1.6905    0.2313   -0.8579 N.ar    1  UNL1       -0.2701
      9 C           2.5450    0.7174   -1.8052 C.ar    1  UNL1        0.1816
     10 N           3.6911    1.0718   -1.2714 N.ar    1  UNL1       -0.2157
     11 CA          3.5699    0.8344    0.0942 C.ar    1  UNL1        0.1955
     12 C           2.3224    0.2890    0.3536 C.ar    1  UNL1        0.1785
     13 N           1.7254   -0.1417    1.4854 N.pl3   1  UNL1       -0.1070
     14 C           4.6439    1.1256    1.0419 C.2     1  UNL1        0.4080
     15 O           5.7472    1.5607    0.7300 O.co2   1  UNL1       -0.2387
     16 OXT         4.3140    0.8570    2.3353 O.co2   1  UNL1       -0.2387
     17 C          -2.4152   -0.0702    1.0854 C.3     1  UNL1        0.1859
     18 O          -3.2557    1.0119    0.7349 O.3     1  UNL1       -0.2675
     19 P          -4.7847    0.6400    0.3708 P.3     1  UNL1        0.5327
     20 O          -5.6342    1.8152    0.0049 O.2     1  UNL1       -0.2224
     21 O          -4.6361   -0.4848   -0.7820 O.3     1  UNL1       -0.1145
     22 O          -5.2847   -0.2030    1.6564 O.3     1  UNL1       -0.1145
@<TRIPOS>BOND
     1     2     1    1
     2     2     3    1
     3     3     4    1
     4     3     5    1
     5     5     6    1
     6     6     7    1
     7     7     8    1
     8     8     9   ar
     9     9    10   ar
    10    10    11   ar
    11    11    12   ar
    12    12    13    1
    13    11    14    1
    14    14    15   ar
    15    14    16   ar
    16     5    17    1
    17    17    18    1
    18    18    19    1
    19    19    20    2
    20    19    21    1
    21    19    22    1
    22     7     2    1
    23    12     8   ar
