@<TRIPOS>MOLECULE
*****
 8 8 0 0 0
SMALL
GASTEIGER

@<TRIPOS>ATOM
      1 C           2.7393    0.0960   -0.8182 C.3     1  UNL1        0.0310
      2 C           1.3141    0.0460   -0.3925 C.ar    1  UNL1       -0.0216
      3 C           0.5315   -1.0641   -0.7096 C.ar    1  UNL1       -0.0010
      4 C          -0.8021   -1.1137   -0.3127 C.ar    1  UNL1        0.0417
      5 C          -1.3361   -0.0468    0.3991 C.ar    1  UNL1        0.1957
      6 C          -0.5693    1.0657    0.7223 C.ar    1  UNL1        0.0417
      7 C           0.7637    1.1095    0.3227 C.ar    1  UNL1       -0.0010
      8 O          -2.6411   -0.0925    0.7889 O.3     1  UNL1       -0.2866
@<TRIPOS>BOND
     1     1     2    1
     2     2     3   ar
     3     3     4   ar
     4     4     5   ar
     5     5     6   ar
     6     6     7   ar
     7     5     8    1
     8     7     2   ar
