@<TRIPOS>MOLECULE
*****
 14 13 0 0 0
SMALL
GASTEIGER

@<TRIPOS>ATOM
      1 O          -0.9498   -1.2232    0.2224 O.2     1  UNL1       -0.2909
      2 C          -0.8335   -0.0843    0.6663 C.2     1  UNL1        0.1808
      3 C           0.4582    0.6655    0.6555 C.3     1  UNL1        0.1340
      4 C           1.5716   -0.1619    1.2191 C.2     1  UNL1        0.1698
      5 O           1.9591   -0.0085    2.3767 O.2     1  UNL1       -0.2950
      6 C           2.1784   -1.1912    0.3197 C.3     1  UNL1        0.1787
      7 C           3.1262   -0.5807   -0.6507 C.2     1  UNL1        0.3723
      8 O           2.9463    0.4738   -1.2417 O.co2   1  UNL1       -0.2452
      9 O           4.2104   -1.3756   -0.8086 O.co2   1  UNL1       -0.2452
     10 C          -1.9897    0.6217    1.2586 C.2     1  UNL1        0.0447
     11 C          -3.0839    0.8777    0.5344 C.2     1  UNL1        0.0891
     12 C          -3.1008    0.7196   -0.9273 C.2     1  UNL1        0.3881
     13 O          -2.1824    1.0163   -1.6730 O.co2   1  UNL1       -0.2405
     14 O          -4.3103    0.2507   -1.2981 O.co2   1  UNL1       -0.2405
@<TRIPOS>BOND
     1     1     2    2
     2     2     3    1
     3     3     4    1
     4     4     5    2
     5     4     6    1
     6     6     7    1
     7     7     8   ar
     8     7     9   ar
     9     2    10    1
    10    10    11    2
    11    11    12    1
    12    12    13   ar
    13    12    14   ar
